
OS:Version,
  {fc003c06-618b-4051-9b37-6b6f71b12672}, !- Handle
  3.0.1;                                  !- Version Identifier
